%%%%%%%%%%%%%%%%%%%%%%%%%%%%%%%%%%%%%%%%%%%%%%%%%%%%%%%%%%%%%%%%%%%%%%%%%%%%%%%%
%                                                                              %
% SU2 configuration file                                                       %
% Case description: 2D NACA 0012 Airfoil Validation Case (incompressible)      %
%                   http://turbmodels.larc.nasa.gov/naca0012_val_sa.html       %
% Author: Thomas D. Economon & Francisco Palacios	                             %
% Date: 2018.06.10                                                             %
% File Version 6.1.0 "Falcon"                                                  %
%                                                                              %
%%%%%%%%%%%%%%%%%%%%%%%%%%%%%%%%%%%%%%%%%%%%%%%%%%%%%%%%%%%%%%%%%%%%%%%%%%%%%%%%

% This configuration file is used to write the FFD box around the airfoil in the 
% mesh input file.

% ------------- DIRECT, ADJOINT, AND LINEARIZED PROBLEM DEFINITION ------------%
%
% Physical governing equations (EULER, NAVIER_STOKES,
%                               WAVE_EQUATION, HEAT_EQUATION, FEM_ELASTICITY,
%                               POISSON_EQUATION)
SOLVER= INC_RANS
%
% Specify turbulent model (NONE, SA, SA_NEG, SST)
KIND_TURB_MODEL= SA
%
KIND_TRANS_MODEL= BC
%
FREESTREAM_TURBULENCEINTENSITY= 0.002
%
% Mathematical problem (DIRECT, CONTINUOUS_ADJOINT)
MATH_PROBLEM= DIRECT
%
% Restart solution (NO, YES)
RESTART_SOL= NO

% -------------------- INCOMPRESSIBLE FREE-STREAM DEFINITION ------------------%
%
% Free-stream density (1.2886 Kg/m^3 (air), 998.2 Kg/m^3 (water))
INC_DENSITY_INIT= 1.225
%
% Initial velocity for incompressible flows (1.0,0,0 m/s by default)
%
% AoA 6.94 deg
INC_VELOCITY_INIT= ( 3.0497, 0.3712, 0.0 )
%
% AoA 10 deg
%INC_VELOCITY_INIT= ( 2.744, 0.0 , 0.0 )
%
% Non-dimensionalization scheme for incompressible flows. Options are
% INITIAL_VALUES (default), REFERENCE_VALUES, or DIMENSIONAL.
% INC_*_REF values are ignored unless REFERENCE_VALUES is chosen.
INC_NONDIM= DIMENSIONAL
%
% Reference density for incompressible flows (1.0 kg/m^3 by default)
INC_DENSITY_REF= 1.225
%
% Reference velocity for incompressible flows (1.0 m/s by default)
INC_VELOCITY_REF= 3.0722
%
% Reference temperature for incompressible flows that include the
% energy equation (1.0 K by default)
INC_TEMPERATURE_REF = 288.15

% -------------- COMPRESSIBLE AND INCOMPRESSIBLE FLUID CONSTANTS --------------%
%
% Ratio of specific heats (1.4 (air), only for compressible flows)
GAMMA_VALUE= 1.4
%
% Specific gas constant (287.87 J/kg*K (air), only for compressible flows)
GAS_CONSTANT= 287.87

% --------------------------- VISCOSITY MODEL ---------------------------------%
%
% Viscosity model (SUTHERLAND, CONSTANT_VISCOSITY).
VISCOSITY_MODEL= CONSTANT_VISCOSITY
%
% Molecular Viscosity that would be constant (1.716E-5 by default)
MU_CONSTANT= 1.853e-05

% -------------------------- CL DRIVER DEFINITION -----------------------------%
%
% Activate fixed lift mode (specify a CL instead of AoA, NO/YES)
%FIXED_CL_MODE= YES
%
% Target coefficient of lift for fixed lift mode (0.80 by default)
TARGET_CL= 0.84973
%
% Estimation of dCL/dAlpha (0.2 per degree by default)
DCL_DALPHA= 0.2
%
% Maximum number of iterations between AoA updates
UPDATE_AOA_ITER_LIMIT= 100
%
% Number of iterations to evaluate dCL/dAlpha at the end of the simulation
ITER_DCL_DALPHA= 500
%
% Evaluate dObjFunc/dCL during runtime (YES) or use the value stored in the 
% direct solution file (NO).
EVAL_DOF_DCX= NO

% ---------------------- REFERENCE VALUE DEFINITION ---------------------------%
%
% Reference origin for moment computation
REF_ORIGIN_MOMENT_X = 0.25
REF_ORIGIN_MOMENT_Y = 0.00
REF_ORIGIN_MOMENT_Z = 0.00
%
% Reference length for pitching, rolling, and yawing non-dimensional moment
REF_LENGTH= 1.0
%
% Reference area for force coefficients (0 implies automatic calculation)
REF_AREA= 1.0

% -------------------- BOUNDARY CONDITION DEFINITION --------------------------%
%
% Navier-Stokes wall boundary marker(s) (NONE = no marker)
MARKER_HEATFLUX= ( AIRFOIL, 0.0)
%
% Farfield boundary marker(s) (NONE = no marker)
MARKER_FAR= ( FARFIELD )
%
% Marker(s) of the surface to be plotted or designed
MARKER_PLOTTING= ( AIRFOIL )
%
% Marker(s) of the surface where the functional (Cd, Cl, etc.) will be evaluated
MARKER_MONITORING= ( AIRFOIL )

% ------------- COMMON PARAMETERS DEFINING THE NUMERICAL METHOD ---------------%
%
% Numerical method for spatial gradients (GREEN_GAUSS, WEIGHTED_LEAST_SQUARES)
NUM_METHOD_GRAD= GREEN_GAUSS
%
% Courant-Friedrichs-Lewy condition of the finest grid
CFL_NUMBER= 25
%
% Adaptive CFL number (NO, YES)
CFL_ADAPT= YES
%
% Parameters of the adaptive CFL number (factor down, factor up, CFL min value,
%                                        CFL max value )
CFL_ADAPT_PARAM= ( 0.1, 1.2, 25.0, 1e3 )
%
% Maximum Delta Time in local time stepping simulations
MAX_DELTA_TIME= 1E6
%
% Runge-Kutta alpha coefficients
RK_ALPHA_COEFF= ( 0.66667, 0.66667, 1.000000 )
%
% Number of total iterations
ITER= 10000
%
% Objective function in gradient evaluation   (DRAG, LIFT, SIDEFORCE, MOMENT_X,
%                                             MOMENT_Y, MOMENT_Z, EFFICIENCY)
OBJECTIVE_FUNCTION= DRAG

% ----------------------- SLOPE LIMITER DEFINITION ----------------------------%
%
% Coefficient for the limiter
VENKAT_LIMITER_COEFF= 0.1343
%
% Coefficient for the sharp edges limiter
ADJ_SHARP_LIMITER_COEFF= 3.0
%
% Reference coefficient (sensitivity) for detecting sharp edges.
REF_SHARP_EDGES= 3.0
%
% Remove sharp edges from the sensitivity evaluation (NO, YES)
SENS_REMOVE_SHARP= NO

% ------------------------ LINEAR SOLVER DEFINITION ---------------------------%
%
% Linear solver for implicit formulations (BCGSTAB, FGMRES)
LINEAR_SOLVER= FGMRES
%
% Preconditioner of the Krylov linear solver (JACOBI, LINELET, LU_SGS)
LINEAR_SOLVER_PREC= ILU
%
% Linael solver ILU preconditioner fill-in level (0 by default)
LINEAR_SOLVER_ILU_FILL_IN= 0
%
% Minimum error of the linear solver for implicit formulations
LINEAR_SOLVER_ERROR= 1E-10
%
% Max number of iterations of the linear solver for the implicit formulation
LINEAR_SOLVER_ITER= 10

% -------------------------- MULTIGRID PARAMETERS -----------------------------%
%
% Multi-Grid Levels (0 = no multi-grid)
MGLEVEL= 0
%
% Multi-grid cycle (V_CYCLE, W_CYCLE, FULLMG_CYCLE)
MGCYCLE= V_CYCLE
%
% Multi-grid pre-smoothing level
MG_PRE_SMOOTH= ( 1, 1, 1, 1 )
%
% Multi-grid post-smoothing level
MG_POST_SMOOTH= ( 0, 0, 0, 0 )
%
% Jacobi implicit smoothing of the correction
MG_CORRECTION_SMOOTH= ( 0, 0, 0, 0 )
%
% Damping factor for the residual restriction
MG_DAMP_RESTRICTION= 0.8
%
% Damping factor for the correction prolongation
MG_DAMP_PROLONGATION= 0.8

% -------------------- FLOW NUMERICAL METHOD DEFINITION -----------------------%
%
% Convective numerical method (JST, LAX-FRIEDRICH, CUSP, ROE, AUSM, HLLC,
%                              TURKEL_PREC, MSW)
CONV_NUM_METHOD_FLOW= FDS
%
% Monotonic Upwind Scheme for Conservation Laws (TVD) in the flow equations.
%           Required for 2nd order upwind schemes (NO, YES)
MUSCL_FLOW= YES
%
% Slope limiter (VENKATAKRISHNAN, MINMOD)
SLOPE_LIMITER_FLOW= VENKATAKRISHNAN

%
% 2nd and 4th order artificial dissipation coefficients
JST_SENSOR_COEFF= ( 0.0, 0.02 )
%
% Time discretization (RUNGE-KUTTA_EXPLICIT, EULER_IMPLICIT, EULER_EXPLICIT)
TIME_DISCRE_FLOW= EULER_IMPLICIT

% -------------------- TURBULENT NUMERICAL METHOD DEFINITION ------------------%
%
% Convective numerical method (SCALAR_UPWIND)
CONV_NUM_METHOD_TURB= SCALAR_UPWIND
%
% Monotonic Upwind Scheme for Conservation Laws (TVD) in the turbulence equations.
%           Required for 2nd order upwind schemes (NO, YES)
MUSCL_TURB= NO
%
% Slope limiter (VENKATAKRISHNAN, MINMOD)
SLOPE_LIMITER_TURB= VENKATAKRISHNAN
%
% Time discretization (EULER_IMPLICIT)
TIME_DISCRE_TURB= EULER_IMPLICIT

% ---------------- ADJOINT-FLOW NUMERICAL METHOD DEFINITION -------------------%
%
% Frozen the turbulent viscosity in the discrete adjoint formulation (NO, YES)
FROZEN_VISC_DISC= NO
%
% Convective numerical method (JST, LAX-FRIEDRICH, ROE)
CONV_NUM_METHOD_ADJFLOW= JST
%
% Time discretization (RUNGE-KUTTA_EXPLICIT, EULER_IMPLICIT)
TIME_DISCRE_ADJFLOW= EULER_IMPLICIT
%
% Relaxation coefficient
RELAXATION_FACTOR_ADJOINT= 1.0
%
% Reduction factor of the CFL coefficient in the adjoint problem
CFL_REDUCTION_ADJFLOW= 1.0 % prima era 0.8
%
% Limit value for the adjoint variable
LIMIT_ADJFLOW= 1E6

% ----------------------- GEOMETRY EVALUATION PARAMETERS ----------------------%
%
% Marker(s) of the surface where geometrical based function will be evaluated
GEO_MARKER= ( AIRFOIL )
%
% Description of the geometry to be analyzed (AIRFOIL, WING, FUSELAGE)
GEO_DESCRIPTION= AIRFOIL
%
% Geometrical evaluation mode (FUNCTION, GRADIENT)
GEO_MODE= FUNCTION

% --------------------------- CONVERGENCE PARAMETERS --------------------------%
%
% Convergence criteria (CAUCHY, RESIDUAL)
CONV_FIELD= DENSITY
%
% Min value of the residual (log10 of the residual)
CONV_RESIDUAL_MINVAL= -10
%
% Start convergence criteria at iteration number
CONV_STARTITER= 10
%
% Number of elements to apply the criteria
CONV_CAUCHY_ELEMS= 100
%
% Epsilon to control the series convergence
CONV_CAUCHY_EPS= 1E-5

% ------------------------- INPUT/OUTPUT INFORMATION --------------------------%
%
% Mesh input file
MESH_FILENAME= mesh_media.su2
%
% Mesh input file format (SU2, CGNS, NETCDF_ASCII)
MESH_FORMAT= SU2
%
% Mesh output file
MESH_OUT_FILENAME= mesh_out.su2
%
% Restart flow input file
SOLUTION_FILENAME= solution_flow.dat
%
% Restart adjoint input file
SOLUTION_ADJ_FILENAME= solution_adj.dat
%
% Output file format (PARAVIEW, TECPLOT, STL)
TABULAR_FORMAT= CSV
%
% Output file convergence history (w/o extension) 
CONV_FILENAME= history
%
% Output file restart flow
RESTART_FILENAME= restart_flow.dat
%
% Output file restart adjoint
RESTART_ADJ_FILENAME= restart_adj.dat
%
% Output file flow (w/o extension) variables
VOLUME_FILENAME= flow
%
% Output file adjoint (w/o extension) variables
VOLUME_ADJ_FILENAME= adjoint
%
% Output objective function gradient (using continuous adjoint)
GRAD_OBJFUNC_FILENAME= of_grad.dat
%
% Output file surface flow coefficient (w/o extension)
SURFACE_FILENAME= surface_flow
%
% Output file surface adjoint coefficient (w/o extension)
SURFACE_ADJ_FILENAME= surface_adjoint
%
%
% Screen output
SCREEN_OUTPUT = (INNER_ITER, WALL_TIME, RMS_PRESSURE, RMS_NU_TILDE, LIFT, DRAG)

% Output files
OUTPUT_FILES= (RESTART, PARAVIEW, SURFACE_PARAVIEW, SURFACE_CSV)

% ----------------------- DESIGN VARIABLE PARAMETERS --------------------------%
% Kind of deformation (FFD_SETTING, FFD_CONTROL_POINT_2D, FFD_CAMBER_2D, FFD_THICKNESS_2D,
%                      HICKS_HENNE, PARABOLIC,
%                      NACA_4DIGITS, DISPLACEMENT, ROTATION, FFD_CONTROL_POINT, 
%                      FFD_NACELLE, FFD_TWIST, FFD_ROTATION,
%                      FFD_CAMBER, FFD_THICKNESS, SURFACE_FILE)
DV_KIND= FFD_SETTING
%
% Marker of the surface to which we are going apply the shape deformation
DV_MARKER= ( AIRFOIL )
%
% Parameters of the shape deformation 
% 	- HICKS_HENNE ( Lower Surface (0)/Upper Surface (1)/Only one Surface (2), x_Loc )
% 	- NACA_4DIGITS ( 1st digit, 2nd digit, 3rd and 4th digit )
% 	- PARABOLIC ( Center, Thickness )
% 	- DISPLACEMENT ( x_Disp, y_Disp, z_Disp )
% 	- ROTATION ( x_Orig, y_Orig, z_Orig, x_End, y_End, z_End )
% 	- OBSTACLE ( Center, Bump size )
% 	- FFD_CONTROL_POINT ( FFD_BoxTag ID, i_Ind, j_Ind, k_Ind, x_Disp, y_Disp, z_Disp )
% 	- FFD_DIHEDRAL_ANGLE ( FFD_BoxTag ID, x_Orig, y_Orig, z_Orig, x_End, y_End, z_End )
% 	- FFD_TWIST_ANGLE ( FFD_BoxTag ID, x_Orig, y_Orig, z_Orig, x_End, y_End, z_End )
% 	- FFD_ROTATION ( FFD_BoxTag ID, x_Orig, y_Orig, z_Orig, x_End, y_End, z_End )
% 	- FFD_CAMBER ( FFD_BoxTag ID, i_Ind, j_Ind )
% 	- FFD_THICKNESS ( FFD_BoxTag ID, i_Ind, j_Ind )
% 	- FFD_VOLUME ( FFD_BoxTag ID, i_Ind, j_Ind )
%DV_PARAM= ( 1.0 )
DV_PARAM= ( BOX, 1, 0, 0, 0.0, 1.0, 0.0 )
%
% New value of the shape deformation
DV_VALUE= 0.0

% ---------------- MESH DEFORMATION PARAMETERS (NEW SOLVER) -------------------%
%
% Use the reformatted pseudo-elastic solver for grid deformation
DEFORM_MESH= YES
%
% Moving markers which deform the mesh
MARKER_DEFORM_MESH = ( AIRFOIL )

% ------------------------ GRID DEFORMATION PARAMETERS ------------------------%
%
% Linear solver or smoother for implicit formulations (FGMRES, RESTARTED_FGMRES, BCGSTAB)
DEFORM_LINEAR_SOLVER= FGMRES
%
% Preconditioner of the Krylov linear solver (ILU, LU_SGS, JACOBI)
DEFORM_LINEAR_SOLVER_PREC= ILU
%
% Number of smoothing iterations for mesh deformation
DEFORM_LINEAR_SOLVER_ITER= 1000
%
% Number of nonlinear deformation iterations (surface deformation increments)
DEFORM_NONLINEAR_ITER= 1
%
% Minimum residual criteria for the linear solver convergence of grid deformation
DEFORM_LINEAR_SOLVER_ERROR= 1E-14
%
% Print the residuals during mesh deformation to the console (YES, NO)
DEFORM_CONSOLE_OUTPUT= YES
%
% Deformation coefficient (linear elasticity limits from -1.0 to 0.5, a larger
% value is also possible)
DEFORM_COEFF = 1E6
%
% Type of element stiffness imposed for FEA mesh deformation (INVERSE_VOLUME,
%                                           WALL_DISTANCE, CONSTANT_STIFFNESS)
DEFORM_STIFFNESS_TYPE= INVERSE_VOLUME
%
% Deform the grid only close to the surface. It is possible to specify how much
% of the volumetric grid is going to be deformed in meters or inches (1E6 by default)
DEFORM_LIMIT = 1E6

% -------------------- FREE-FORM DEFORMATION PARAMETERS -----------------------%
%
% Tolerance of the Free-Form Deformation point inversion
FFD_TOLERANCE= 1E-10
%
% Maximum number of iterations in the Free-Form Deformation point inversion
FFD_ITERATIONS= 500
%
FFD_DEFINITION=( BOX, -0.05, -0.2, 0.0, 1.05, -0.2, 0.0, 1.05, 0.2, 0.0, -0.05, 0.2, 0.0, 0.0, 0.0, 0.0, 0.0, 0.0, 0.0, 0.0, 0.0, 0.0, 0.0, 0.0, 0.0)
% FFD box degree: 3D case (x_degree, y_degree, z_degree)
%                 2D case (x_degree, y_degree, 0)
FFD_DEGREE= (4, 1, 0) 
%
% There is a symmetry plane (j=0) for all the FFD boxes (YES, NO)
FFD_SYMMETRY_PLANE= NO
%
% Surface grid continuity at the intersection with the faces of the FFD boxes.
% To keep a particular level of surface continuity, SU2 automatically freezes the right
% number of control point planes (NO_DERIVATIVE, 1ST_DERIVATIVE, 2ND_DERIVATIVE, USER_INPUT)
FFD_CONTINUITY= NO_DERIVATIVE

% --------------------- OPTIMAL SHAPE DESIGN DEFINITION -----------------------%
% Available Objective functions 
%    DRAG, LIFT, SIDEFORCE, PRESSURE, FORCE_X, FORCE_Y,
%    FORCE_Z, MOMENT_X, MOMENT_Y, MOMENT_Z, EFFICIENCY, 
%    EQUIVALENT_AREA, THRUST, TORQUE, FREESURFACE

% Optimization objective function with scaling factor, separated by semicolons.
% To include quadratic penalty function: use OPT_CONSTRAINT option syntax within the OPT_OBJECTIVE list.
% ex= Objective * Scale
OPT_OBJECTIVE= DRAG
%
% Optimization constraint functions with pushing factors (affects its value, not the gradient  in the python scripts), separated by semicolons
% ex= (Objective = Value ) * Scale, use '>','<','='
OPT_CONSTRAINT= ( MOMENT_Z < 0.093 ) * 0.001; ( AIRFOIL_THICKNESS  > 0.12 ) * 0.001
%OPT_CONSTRAINT= ( AIRFOIL_AREA = ); (LIFT > 0.84973)
%
% Factor to reduce the norm of the gradient (affects the objective function and gradient in the python scripts)
% In general, a norm of the gradient ~1E-6 is desired.
OPT_GRADIENT_FACTOR= 1E-6
%
% Factor to relax or accelerate the optimizer convergence (affects the line search in SU2_DEF)
% In general, surface deformations of 0.01'' or 0.0001m are desirable
OPT_RELAX_FACTOR= 1E2
%
% Maximum number of iterations
OPT_ITERATIONS= 100
%
% Requested accuracy
OPT_ACCURACY= 1E-10
%
% Optimization bound (bounds the line search in SU2_DEF)
OPT_LINE_SEARCH_BOUND= 1E6
%
% Upper bound for each design variable (bound in the python optimizer)
OPT_BOUND_UPPER= 1E10
%
% Lower bound for each design variable (bound in the python optimizer)
OPT_BOUND_LOWER= -1E10

% List of available design variables (Design variables are separated by semicolons)
%
% 2D Design variables
%    FFD_CONTROL_POINT_2D   (  19, Scale | Mark. List | FFD_BoxTag, i_Ind, j_Ind, x_Mov, y_Mov )
%    FFD_CAMBER_2D          (  20, Scale | Mark. List | FFD_BoxTag, i_Ind )
%    FFD_THICKNESS_2D       (  21, Scale | Mark. List | FFD_BoxTag, i_Ind )
%    FFD_TWIST_2D           (  22, Scale | Mark. List | FFD_BoxTag, x_Orig, y_Orig )
%    HICKS_HENNE            (  30, Scale | Mark. List | Lower(0)/Upper(1) side, x_Loc )
%    ANGLE_OF_ATTACK        ( 101, Scale | Mark. List | 1.0 )
%
% 3D Design variables
%    FFD_CONTROL_POINT      (  11, Scale | Mark. List | FFD_BoxTag, i_Ind, j_Ind, k_Ind, x_Mov, y_Mov, z_Mov )
%    FFD_NACELLE            (  12, Scale | Mark. List | FFD_BoxTag, rho_Ind, theta_Ind, phi_Ind, rho_Mov, phi_Mov )
%    FFD_GULL               (  13, Scale | Mark. List | FFD_BoxTag, j_Ind )
%    FFD_CAMBER             (  14, Scale | Mark. List | FFD_BoxTag, i_Ind, j_Ind )
%    FFD_TWIST              (  15, Scale | Mark. List | FFD_BoxTag, j_Ind, x_Orig, y_Orig, z_Orig, x_End, y_End, z_End )
%    FFD_THICKNESS          (  16, Scale | Mark. List | FFD_BoxTag, i_Ind, j_Ind )
%    FFD_ROTATION           (  18, Scale | Mark. List | FFD_BoxTag, x_Axis, y_Axis, z_Axis, x_Turn, y_Turn, z_Turn )
%    FFD_ANGLE_OF_ATTACK    (  24, Scale | Mark. List | FFD_BoxTag, 1.0 )
%
% Global design variables
%    TRANSLATION            (   1, Scale | Mark. List | x_Disp, y_Disp, z_Disp )
%    ROTATION               (   2, Scale | Mark. List | x_Axis, y_Axis, z_Axis, x_Turn, y_Turn, z_Turn )

DEFINITION_DV=(11, 1.0 | AIRFOIL | BOX, 0, 0, 0, 0.0, 1.0, 0.0); (11, 1.0 | AIRFOIL | BOX, 0, 0, 0, 0.0, 1.0, 0.0); (11, 1.0 | AIRFOIL | BOX, 0, 0, 0, 0.0, 1.0, 0.0); (11, 1.0 | AIRFOIL | BOX, 0, 0, 0, 0.0, 1.0, 0.0); (11, 1.0 | AIRFOIL | BOX, 0, 0, 0, 0.0, 1.0, 0.0); (11, 1.0 | AIRFOIL | BOX, 0, 0, 0, 0.0, 1.0, 0.0); (11, 1.0 | AIRFOIL | BOX, 0, 0, 0, 0.0, 1.0, 0.0); (11, 1.0 | AIRFOIL | BOX, 0, 
